<?xml version="1.0" encoding="iso-8859-1"?>

  <configuration xmlns:xsi="http://www.w3.org/2001/XMLSchema-instance" xsi:noNamespaceSchemaLocation="http://sumo.sf.net/xsd/sumoConfigu  ration.xsd">

      <input>
          <net-file value="net.xml"/>
          <gui-settings-file value="clib.xml"/>
          <route-files value="output.trips3.xml,output.trips0.xml,output.trips2.xml,output.trips1.xml"/>
          <additional-files value="addition.xml"/>
      </input>

      <time>
          <begin value="0"/>
          <end value="36000"/>
          <step-length value="0.01"/>
      </time>

      <processing>
          <collision.action value="none"/>
          <collision.stoptime value="100"/>
      </processing>

      <gui_only>
          <start value="true"/>

      </gui_only>


  </configuration>

