<?xml version="1.0" encoding="UTF-8"?>

<!-- generated on 2023-03-20 11:51:53.504751 by randomTrips.py UNKNOWN
<configuration>
    <additional-files value="vType.xml"/>
    <end value="109"/>
    <length value="True"/>
    <max-distance value="500000.0"/>
    <min-distance value="1000.0"/>
    <net-file value="net.xml"/>
    <period value="0.1"/>
    <route-file value="output.trips3.xml"/>
    <seed value="30"/>
    <trip-attributes value="type=&quot;motor&quot; departLane=&quot;best&quot; departSpeed=&quot;max&quot;"/>
    <prefix value="motorcycle"/>
    <validate value="True"/>
</configuration>
-->

<!-- generated on 2023-03-20 11:51:53 by Eclipse SUMO duarouter Version 1.14.1
<configuration xmlns:xsi="http://www.w3.org/2001/XMLSchema-instance" xsi:noNamespaceSchemaLocation="http://sumo.dlr.de/xsd/duarouterConfiguration.xsd">

    <input>
        <net-file value="net.xml"/>
        <additional-files value="vType.xml"/>
        <route-files value="trips.trips.xml"/>
    </input>

    <output>
        <output-file value="trips.trips.xml.tmp"/>
        <alternatives-output value="NUL"/>
        <write-trips value="true"/>
    </output>

    <time>
        <begin value="0"/>
        <end value="109"/>
    </time>

    <report>
        <no-warnings value="true"/>
        <ignore-errors value="true"/>
        <no-step-log value="true"/>
    </report>

</configuration>
-->

<routes xmlns:xsi="http://www.w3.org/2001/XMLSchema-instance" xsi:noNamespaceSchemaLocation="http://sumo.dlr.de/xsd/routes_file.xsd">
    <vType id="motor891" length="2.13" minGap="1.00" maxSpeed="39.17" vClass="motorcycle" lcStrategic="500" lcSpeedGainRight="1" lcOvertakeRight="1" carFollowModel="EIDM" accel="5.949" decel="10.160" emergencyDecel="9.171" tau="0.703"/>
    <trip id="motorcycle0" type="motor891" depart="0.00" departLane="best" departSpeed="max" from="-E8" to="-E31"/>
    <vType id="motor712" length="2.24" minGap="1.00" maxSpeed="37.48" vClass="motorcycle" lcStrategic="500" lcSpeedGainRight="1" lcOvertakeRight="1" carFollowModel="EIDM" accel="6.150" decel="10.243" emergencyDecel="9.135" tau="0.929"/>
    <trip id="motorcycle1" type="motor712" depart="0.10" departLane="best" departSpeed="max" from="E9" to="E1"/>
    <vType id="motor45" length="2.20" minGap="1.00" maxSpeed="41.56" vClass="motorcycle" lcStrategic="500" lcSpeedGainRight="1" lcOvertakeRight="1" carFollowModel="EIDM" accel="5.920" decel="10.689" emergencyDecel="9.219" tau="0.849"/>
    <trip id="motorcycle2" type="motor45" depart="0.20" departLane="best" departSpeed="max" from="-E21" to="-E10"/>
    <vType id="motor491" length="2.29" minGap="1.00" maxSpeed="39.88" vClass="motorcycle" lcStrategic="500" lcSpeedGainRight="1" lcOvertakeRight="1" carFollowModel="EIDM" accel="5.812" decel="9.888" emergencyDecel="9.190" tau="1.030"/>
    <trip id="motorcycle3" type="motor491" depart="0.30" departLane="best" departSpeed="max" from="-E16" to="E38"/>
    <vType id="motor589" length="2.48" minGap="1.00" maxSpeed="40.35" vClass="motorcycle" lcStrategic="500" lcSpeedGainRight="1" lcOvertakeRight="1" carFollowModel="EIDM" accel="5.852" decel="9.799" emergencyDecel="9.031" tau="0.751"/>
    <trip id="motorcycle4" type="motor589" depart="0.40" departLane="best" departSpeed="max" from="E1" to="E41"/>
    <vType id="motor43" length="2.26" minGap="1.00" maxSpeed="39.38" vClass="motorcycle" lcStrategic="500" lcSpeedGainRight="1" lcOvertakeRight="1" carFollowModel="EIDM" accel="6.153" decel="10.215" emergencyDecel="9.415" tau="0.736"/>
    <trip id="motorcycle5" type="motor43" depart="0.50" departLane="best" departSpeed="max" from="E9" to="E2"/>
    <vType id="motor247" length="2.06" minGap="1.00" maxSpeed="40.88" vClass="motorcycle" lcStrategic="500" lcSpeedGainRight="1" lcOvertakeRight="1" carFollowModel="EIDM" accel="6.033" decel="9.821" emergencyDecel="9.326" tau="0.989"/>
    <trip id="motorcycle7" type="motor247" depart="0.70" departLane="best" departSpeed="max" from="E12" to="E3"/>
    <vType id="motor545" length="2.40" minGap="1.00" maxSpeed="40.05" vClass="motorcycle" lcStrategic="500" lcSpeedGainRight="1" lcOvertakeRight="1" carFollowModel="EIDM" accel="6.141" decel="10.221" emergencyDecel="9.015" tau="0.820"/>
    <trip id="motorcycle8" type="motor545" depart="0.80" departLane="best" departSpeed="max" from="-E9.302" to="E20"/>
    <vType id="motor745" length="2.13" minGap="1.00" maxSpeed="38.62" vClass="motorcycle" lcStrategic="500" lcSpeedGainRight="1" lcOvertakeRight="1" carFollowModel="EIDM" accel="5.908" decel="9.699" emergencyDecel="9.170" tau="0.704"/>
    <trip id="motorcycle9" type="motor745" depart="0.90" departLane="best" departSpeed="max" from="E10" to="E40"/>
    <vType id="motor6" length="2.06" minGap="1.00" maxSpeed="38.51" vClass="motorcycle" lcStrategic="500" lcSpeedGainRight="1" lcOvertakeRight="1" carFollowModel="EIDM" accel="6.105" decel="9.981" emergencyDecel="9.050" tau="0.902"/>
    <trip id="motorcycle10" type="motor6" depart="1.00" departLane="best" departSpeed="max" from="-E13" to="E10"/>
    <vType id="motor673" length="2.10" minGap="1.00" maxSpeed="43.33" vClass="motorcycle" lcStrategic="500" lcSpeedGainRight="1" lcOvertakeRight="1" carFollowModel="EIDM" accel="6.379" decel="10.050" emergencyDecel="9.021" tau="0.755"/>
    <trip id="motorcycle11" type="motor673" depart="1.10" departLane="best" departSpeed="max" from="E32" to="-E26"/>
    <vType id="motor466" length="2.18" minGap="1.00" maxSpeed="43.24" vClass="motorcycle" lcStrategic="500" lcSpeedGainRight="1" lcOvertakeRight="1" carFollowModel="EIDM" accel="6.116" decel="10.003" emergencyDecel="9.092" tau="0.760"/>
    <trip id="motorcycle12" type="motor466" depart="1.20" departLane="best" departSpeed="max" from="-E28" to="E3"/>
    <vType id="motor452" length="2.26" minGap="1.00" maxSpeed="42.02" vClass="motorcycle" lcStrategic="500" lcSpeedGainRight="1" lcOvertakeRight="1" carFollowModel="EIDM" accel="6.094" decel="9.736" emergencyDecel="9.075" tau="0.621"/>
    <trip id="motorcycle13" type="motor452" depart="1.30" departLane="best" departSpeed="max" from="-E38" to="E28"/>
    <vType id="motor566" length="2.24" minGap="1.00" maxSpeed="39.84" vClass="motorcycle" lcStrategic="500" lcSpeedGainRight="1" lcOvertakeRight="1" carFollowModel="EIDM" accel="5.962" decel="9.798" emergencyDecel="9.357" tau="0.915"/>
    <trip id="motorcycle14" type="motor566" depart="1.40" departLane="best" departSpeed="max" from="-E25" to="E12"/>
    <vType id="motor264" length="2.11" minGap="1.00" maxSpeed="42.40" vClass="motorcycle" lcStrategic="500" lcSpeedGainRight="1" lcOvertakeRight="1" carFollowModel="EIDM" accel="5.915" decel="10.016" emergencyDecel="9.030" tau="0.722"/>
    <trip id="motorcycle15" type="motor264" depart="1.50" departLane="best" departSpeed="max" from="-E7" to="E39"/>
    <vType id="motor60" length="2.16" minGap="1.00" maxSpeed="39.49" vClass="motorcycle" lcStrategic="500" lcSpeedGainRight="1" lcOvertakeRight="1" carFollowModel="EIDM" accel="5.860" decel="10.299" emergencyDecel="9.105" tau="0.867"/>
    <trip id="motorcycle16" type="motor60" depart="1.60" departLane="best" departSpeed="max" from="E6" to="E12"/>
    <vType id="motor875" length="2.28" minGap="1.00" maxSpeed="37.53" vClass="motorcycle" lcStrategic="500" lcSpeedGainRight="1" lcOvertakeRight="1" carFollowModel="EIDM" accel="6.183" decel="10.149" emergencyDecel="9.115" tau="0.609"/>
    <trip id="motorcycle17" type="motor875" depart="1.70" departLane="best" departSpeed="max" from="-E10" to="E6"/>
    <vType id="motor321" length="2.12" minGap="1.00" maxSpeed="38.05" vClass="motorcycle" lcStrategic="500" lcSpeedGainRight="1" lcOvertakeRight="1" carFollowModel="EIDM" accel="6.209" decel="9.990" emergencyDecel="9.181" tau="0.778"/>
    <trip id="motorcycle18" type="motor321" depart="1.80" departLane="best" departSpeed="max" from="E6" to="E1.596"/>
    <vType id="motor683" length="2.35" minGap="1.00" maxSpeed="37.71" vClass="motorcycle" lcStrategic="500" lcSpeedGainRight="1" lcOvertakeRight="1" carFollowModel="EIDM" accel="5.852" decel="10.391" emergencyDecel="9.165" tau="1.005"/>
    <trip id="motorcycle19" type="motor683" depart="1.90" departLane="best" departSpeed="max" from="-E41" to="E5"/>
    <vType id="motor46" length="2.05" minGap="1.00" maxSpeed="38.67" vClass="motorcycle" lcStrategic="500" lcSpeedGainRight="1" lcOvertakeRight="1" carFollowModel="EIDM" accel="5.872" decel="10.189" emergencyDecel="9.057" tau="0.817"/>
    <trip id="motorcycle20" type="motor46" depart="2.00" departLane="best" departSpeed="max" from="-E211" to="-E26"/>
    <vType id="motor939" length="2.12" minGap="1.00" maxSpeed="42.98" vClass="motorcycle" lcStrategic="500" lcSpeedGainRight="1" lcOvertakeRight="1" carFollowModel="EIDM" accel="5.922" decel="9.989" emergencyDecel="9.018" tau="0.882"/>
    <trip id="motorcycle24" type="motor939" depart="2.40" departLane="best" departSpeed="max" from="-E7" to="-E7"/>
    <vType id="motor887" length="2.21" minGap="1.00" maxSpeed="40.19" vClass="motorcycle" lcStrategic="500" lcSpeedGainRight="1" lcOvertakeRight="1" carFollowModel="EIDM" accel="5.876" decel="9.939" emergencyDecel="9.367" tau="0.769"/>
    <trip id="motorcycle26" type="motor887" depart="2.60" departLane="best" departSpeed="max" from="E6" to="E12"/>
    <vType id="motor396" length="2.17" minGap="1.00" maxSpeed="39.45" vClass="motorcycle" lcStrategic="500" lcSpeedGainRight="1" lcOvertakeRight="1" carFollowModel="EIDM" accel="5.915" decel="9.857" emergencyDecel="9.070" tau="1.130"/>
    <trip id="motorcycle27" type="motor396" depart="2.70" departLane="best" departSpeed="max" from="-E13" to="-E35"/>
    <vType id="motor544" length="2.24" minGap="1.00" maxSpeed="39.35" vClass="motorcycle" lcStrategic="500" lcSpeedGainRight="1" lcOvertakeRight="1" carFollowModel="EIDM" accel="5.989" decel="9.733" emergencyDecel="9.238" tau="0.813"/>
    <trip id="motorcycle28" type="motor544" depart="2.80" departLane="best" departSpeed="max" from="-E1" to="E15"/>
    <vType id="motor236" length="2.07" minGap="1.00" maxSpeed="42.69" vClass="motorcycle" lcStrategic="500" lcSpeedGainRight="1" lcOvertakeRight="1" carFollowModel="EIDM" accel="5.911" decel="9.672" emergencyDecel="9.204" tau="0.830"/>
    <trip id="motorcycle29" type="motor236" depart="2.90" departLane="best" departSpeed="max" from="-E211" to="-E8"/>
    <vType id="motor764" length="2.13" minGap="1.00" maxSpeed="41.38" vClass="motorcycle" lcStrategic="500" lcSpeedGainRight="1" lcOvertakeRight="1" carFollowModel="EIDM" accel="5.904" decel="10.010" emergencyDecel="9.148" tau="0.662"/>
    <trip id="motorcycle32" type="motor764" depart="3.20" departLane="best" departSpeed="max" from="-E5" to="E38"/>
    <vType id="motor159" length="1.98" minGap="1.00" maxSpeed="39.33" vClass="motorcycle" lcStrategic="500" lcSpeedGainRight="1" lcOvertakeRight="1" carFollowModel="EIDM" accel="6.085" decel="10.047" emergencyDecel="9.243" tau="0.913"/>
    <trip id="motorcycle33" type="motor159" depart="3.30" departLane="best" departSpeed="max" from="-E15" to="E39"/>
    <vType id="motor956" length="2.30" minGap="1.00" maxSpeed="41.14" vClass="motorcycle" lcStrategic="500" lcSpeedGainRight="1" lcOvertakeRight="1" carFollowModel="EIDM" accel="6.096" decel="10.127" emergencyDecel="9.170" tau="0.890"/>
    <trip id="motorcycle34" type="motor956" depart="3.40" departLane="best" departSpeed="max" from="E37" to="E38"/>
    <vType id="motor29" length="2.35" minGap="1.00" maxSpeed="42.30" vClass="motorcycle" lcStrategic="500" lcSpeedGainRight="1" lcOvertakeRight="1" carFollowModel="EIDM" accel="6.184" decel="9.606" emergencyDecel="9.031" tau="0.950"/>
    <trip id="motorcycle35" type="motor29" depart="3.50" departLane="best" departSpeed="max" from="-E18" to="E16"/>
    <vType id="motor331" length="2.08" minGap="1.00" maxSpeed="39.00" vClass="motorcycle" lcStrategic="500" lcSpeedGainRight="1" lcOvertakeRight="1" carFollowModel="EIDM" accel="6.063" decel="9.902" emergencyDecel="9.111" tau="0.764"/>
    <trip id="motorcycle37" type="motor331" depart="3.70" departLane="best" departSpeed="max" from="-E39" to="E9"/>
    <vType id="motor129" length="2.21" minGap="1.00" maxSpeed="38.39" vClass="motorcycle" lcStrategic="500" lcSpeedGainRight="1" lcOvertakeRight="1" carFollowModel="EIDM" accel="5.894" decel="9.940" emergencyDecel="9.001" tau="0.809"/>
    <trip id="motorcycle38" type="motor129" depart="3.80" departLane="best" departSpeed="max" from="E2" to="E3"/>
    <vType id="motor125" length="2.37" minGap="1.00" maxSpeed="37.84" vClass="motorcycle" lcStrategic="500" lcSpeedGainRight="1" lcOvertakeRight="1" carFollowModel="EIDM" accel="6.118" decel="9.915" emergencyDecel="9.034" tau="0.821"/>
    <trip id="motorcycle39" type="motor125" depart="3.90" departLane="best" departSpeed="max" from="E1.596" to="E40"/>
    <vType id="motor411" length="2.34" minGap="1.00" maxSpeed="41.95" vClass="motorcycle" lcStrategic="500" lcSpeedGainRight="1" lcOvertakeRight="1" carFollowModel="EIDM" accel="6.007" decel="9.899" emergencyDecel="9.005" tau="0.763"/>
    <trip id="motorcycle40" type="motor411" depart="4.00" departLane="best" departSpeed="max" from="-E3" to="E1.596"/>
    <vType id="motor964" length="2.04" minGap="1.00" maxSpeed="38.02" vClass="motorcycle" lcStrategic="500" lcSpeedGainRight="1" lcOvertakeRight="1" carFollowModel="EIDM" accel="5.908" decel="9.894" emergencyDecel="9.305" tau="0.974"/>
    <trip id="motorcycle41" type="motor964" depart="4.10" departLane="best" departSpeed="max" from="-E4" to="-E12"/>
    <trip id="motorcycle42" type="motor264" depart="4.20" departLane="best" departSpeed="max" from="-E41" to="E3"/>
    <vType id="motor223" length="2.26" minGap="1.00" maxSpeed="40.20" vClass="motorcycle" lcStrategic="500" lcSpeedGainRight="1" lcOvertakeRight="1" carFollowModel="EIDM" accel="5.964" decel="9.891" emergencyDecel="9.092" tau="0.876"/>
    <trip id="motorcycle43" type="motor223" depart="4.30" departLane="best" departSpeed="max" from="E0" to="-E18"/>
    <vType id="motor167" length="2.00" minGap="1.00" maxSpeed="40.19" vClass="motorcycle" lcStrategic="500" lcSpeedGainRight="1" lcOvertakeRight="1" carFollowModel="EIDM" accel="5.805" decel="10.103" emergencyDecel="9.249" tau="0.739"/>
    <trip id="motorcycle44" type="motor167" depart="4.40" departLane="best" departSpeed="max" from="-E12" to="-E2.372"/>
    <vType id="motor571" length="2.36" minGap="1.00" maxSpeed="41.60" vClass="motorcycle" lcStrategic="500" lcSpeedGainRight="1" lcOvertakeRight="1" carFollowModel="EIDM" accel="6.224" decel="10.193" emergencyDecel="9.212" tau="0.686"/>
    <trip id="motorcycle45" type="motor571" depart="4.50" departLane="best" departSpeed="max" from="E18" to="-E12"/>
    <vType id="motor241" length="2.29" minGap="1.00" maxSpeed="38.25" vClass="motorcycle" lcStrategic="500" lcSpeedGainRight="1" lcOvertakeRight="1" carFollowModel="EIDM" accel="6.060" decel="9.710" emergencyDecel="9.167" tau="0.869"/>
    <trip id="motorcycle46" type="motor241" depart="4.60" departLane="best" departSpeed="max" from="-E13" to="-E18"/>
    <vType id="motor811" length="2.26" minGap="1.00" maxSpeed="40.72" vClass="motorcycle" lcStrategic="500" lcSpeedGainRight="1" lcOvertakeRight="1" carFollowModel="EIDM" accel="6.331" decel="9.895" emergencyDecel="9.226" tau="0.695"/>
    <trip id="motorcycle47" type="motor811" depart="4.70" departLane="best" departSpeed="max" from="-E7" to="-E0"/>
    <vType id="motor89" length="2.13" minGap="1.00" maxSpeed="40.81" vClass="motorcycle" lcStrategic="500" lcSpeedGainRight="1" lcOvertakeRight="1" carFollowModel="EIDM" accel="6.086" decel="10.274" emergencyDecel="9.120" tau="0.900"/>
    <trip id="motorcycle48" type="motor89" depart="4.80" departLane="best" departSpeed="max" from="E2" to="E3"/>
    <vType id="motor668" length="2.48" minGap="1.00" maxSpeed="42.85" vClass="motorcycle" lcStrategic="500" lcSpeedGainRight="1" lcOvertakeRight="1" carFollowModel="EIDM" accel="5.975" decel="10.375" emergencyDecel="9.400" tau="0.584"/>
    <trip id="motorcycle49" type="motor668" depart="4.90" departLane="best" departSpeed="max" from="E18" to="E11"/>
    <vType id="motor715" length="2.29" minGap="1.00" maxSpeed="41.94" vClass="motorcycle" lcStrategic="500" lcSpeedGainRight="1" lcOvertakeRight="1" carFollowModel="EIDM" accel="5.863" decel="10.171" emergencyDecel="9.298" tau="0.900"/>
    <trip id="motorcycle50" type="motor715" depart="5.00" departLane="best" departSpeed="max" from="-E26" to="E17"/>
    <vType id="motor691" length="2.23" minGap="1.00" maxSpeed="39.94" vClass="motorcycle" lcStrategic="500" lcSpeedGainRight="1" lcOvertakeRight="1" carFollowModel="EIDM" accel="6.103" decel="9.879" emergencyDecel="9.014" tau="0.767"/>
    <trip id="motorcycle52" type="motor691" depart="5.20" departLane="best" departSpeed="max" from="E15" to="E17"/>
    <vType id="motor959" length="2.00" minGap="1.00" maxSpeed="39.40" vClass="motorcycle" lcStrategic="500" lcSpeedGainRight="1" lcOvertakeRight="1" carFollowModel="EIDM" accel="5.967" decel="10.221" emergencyDecel="9.007" tau="0.793"/>
    <trip id="motorcycle54" type="motor959" depart="5.40" departLane="best" departSpeed="max" from="E1" to="-E21"/>
    <vType id="motor492" length="2.35" minGap="1.00" maxSpeed="37.56" vClass="motorcycle" lcStrategic="500" lcSpeedGainRight="1" lcOvertakeRight="1" carFollowModel="EIDM" accel="6.104" decel="10.407" emergencyDecel="9.199" tau="0.784"/>
    <trip id="motorcycle56" type="motor492" depart="5.60" departLane="best" departSpeed="max" from="-E16" to="-E9.302"/>
    <vType id="motor580" length="2.23" minGap="1.00" maxSpeed="39.05" vClass="motorcycle" lcStrategic="500" lcSpeedGainRight="1" lcOvertakeRight="1" carFollowModel="EIDM" accel="6.086" decel="9.749" emergencyDecel="9.197" tau="0.619"/>
    <trip id="motorcycle57" type="motor580" depart="5.70" departLane="best" departSpeed="max" from="-E24" to="E25"/>
    <vType id="motor168" length="2.29" minGap="1.00" maxSpeed="41.00" vClass="motorcycle" lcStrategic="500" lcSpeedGainRight="1" lcOvertakeRight="1" carFollowModel="EIDM" accel="6.092" decel="10.013" emergencyDecel="9.044" tau="0.691"/>
    <trip id="motorcycle58" type="motor168" depart="5.80" departLane="best" departSpeed="max" from="-E38" to="-E31"/>
    <vType id="motor954" length="2.30" minGap="1.00" maxSpeed="42.15" vClass="motorcycle" lcStrategic="500" lcSpeedGainRight="1" lcOvertakeRight="1" carFollowModel="EIDM" accel="5.802" decel="10.149" emergencyDecel="9.126" tau="1.107"/>
    <trip id="motorcycle59" type="motor954" depart="5.90" departLane="best" departSpeed="max" from="E25" to="E38"/>
    <vType id="motor641" length="2.20" minGap="1.00" maxSpeed="43.89" vClass="motorcycle" lcStrategic="500" lcSpeedGainRight="1" lcOvertakeRight="1" carFollowModel="EIDM" accel="5.965" decel="10.183" emergencyDecel="9.338" tau="0.717"/>
    <trip id="motorcycle61" type="motor641" depart="6.10" departLane="best" departSpeed="max" from="-E12" to="E6"/>
    <vType id="motor151" length="2.10" minGap="1.00" maxSpeed="40.85" vClass="motorcycle" lcStrategic="500" lcSpeedGainRight="1" lcOvertakeRight="1" carFollowModel="EIDM" accel="6.076" decel="10.042" emergencyDecel="9.127" tau="0.795"/>
    <trip id="motorcycle62" type="motor151" depart="6.20" departLane="best" departSpeed="max" from="-E11" to="-E1.703"/>
    <vType id="motor278" length="2.34" minGap="1.00" maxSpeed="41.39" vClass="motorcycle" lcStrategic="500" lcSpeedGainRight="1" lcOvertakeRight="1" carFollowModel="EIDM" accel="5.942" decel="9.921" emergencyDecel="9.177" tau="0.855"/>
    <trip id="motorcycle64" type="motor278" depart="6.40" departLane="best" departSpeed="max" from="E310" to="E16"/>
    <vType id="motor546" length="2.31" minGap="1.00" maxSpeed="37.67" vClass="motorcycle" lcStrategic="500" lcSpeedGainRight="1" lcOvertakeRight="1" carFollowModel="EIDM" accel="5.972" decel="9.998" emergencyDecel="9.047" tau="0.634"/>
    <trip id="motorcycle65" type="motor546" depart="6.50" departLane="best" departSpeed="max" from="-E15" to="E1.596"/>
    <vType id="motor928" length="2.09" minGap="1.00" maxSpeed="42.32" vClass="motorcycle" lcStrategic="500" lcSpeedGainRight="1" lcOvertakeRight="1" carFollowModel="EIDM" accel="5.991" decel="10.187" emergencyDecel="9.057" tau="0.827"/>
    <trip id="motorcycle66" type="motor928" depart="6.60" departLane="best" departSpeed="max" from="E2" to="-E0"/>
    <vType id="motor178" length="2.04" minGap="1.00" maxSpeed="41.34" vClass="motorcycle" lcStrategic="500" lcSpeedGainRight="1" lcOvertakeRight="1" carFollowModel="EIDM" accel="6.078" decel="10.077" emergencyDecel="9.168" tau="0.741"/>
    <trip id="motorcycle68" type="motor178" depart="6.80" departLane="best" departSpeed="max" from="-E40" to="-E10"/>
    <vType id="motor992" length="2.20" minGap="1.00" maxSpeed="40.22" vClass="motorcycle" lcStrategic="500" lcSpeedGainRight="1" lcOvertakeRight="1" carFollowModel="EIDM" accel="5.987" decel="9.986" emergencyDecel="9.064" tau="0.853"/>
    <trip id="motorcycle69" type="motor992" depart="6.90" departLane="best" departSpeed="max" from="-E13" to="E18"/>
    <vType id="motor313" length="2.08" minGap="1.00" maxSpeed="43.63" vClass="motorcycle" lcStrategic="500" lcSpeedGainRight="1" lcOvertakeRight="1" carFollowModel="EIDM" accel="6.067" decel="9.817" emergencyDecel="9.149" tau="0.821"/>
    <trip id="motorcycle70" type="motor313" depart="7.00" departLane="best" departSpeed="max" from="-E24" to="E17"/>
    <vType id="motor86" length="2.30" minGap="1.00" maxSpeed="39.36" vClass="motorcycle" lcStrategic="500" lcSpeedGainRight="1" lcOvertakeRight="1" carFollowModel="EIDM" accel="6.050" decel="9.852" emergencyDecel="9.216" tau="0.767"/>
    <trip id="motorcycle72" type="motor86" depart="7.20" departLane="best" departSpeed="max" from="-E1" to="E38"/>
    <vType id="motor567" length="2.18" minGap="1.00" maxSpeed="40.84" vClass="motorcycle" lcStrategic="500" lcSpeedGainRight="1" lcOvertakeRight="1" carFollowModel="EIDM" accel="6.195" decel="9.714" emergencyDecel="9.035" tau="0.810"/>
    <trip id="motorcycle73" type="motor567" depart="7.30" departLane="best" departSpeed="max" from="-E7" to="E39"/>
    <vType id="motor207" length="2.08" minGap="1.00" maxSpeed="37.46" vClass="motorcycle" lcStrategic="500" lcSpeedGainRight="1" lcOvertakeRight="1" carFollowModel="EIDM" accel="6.370" decel="10.154" emergencyDecel="9.346" tau="0.745"/>
    <trip id="motorcycle74" type="motor207" depart="7.40" departLane="best" departSpeed="max" from="-E13" to="E18"/>
    <vType id="motor180" length="2.30" minGap="1.00" maxSpeed="41.18" vClass="motorcycle" lcStrategic="500" lcSpeedGainRight="1" lcOvertakeRight="1" carFollowModel="EIDM" accel="6.269" decel="10.012" emergencyDecel="9.161" tau="0.668"/>
    <trip id="motorcycle75" type="motor180" depart="7.50" departLane="best" departSpeed="max" from="-E13" to="-E19"/>
    <trip id="motorcycle76" type="motor46" depart="7.60" departLane="best" departSpeed="max" from="-E10" to="E2.669"/>
    <vType id="motor721" length="2.34" minGap="1.00" maxSpeed="40.83" vClass="motorcycle" lcStrategic="500" lcSpeedGainRight="1" lcOvertakeRight="1" carFollowModel="EIDM" accel="6.320" decel="9.800" emergencyDecel="9.185" tau="0.823"/>
    <trip id="motorcycle78" type="motor721" depart="7.80" departLane="best" departSpeed="max" from="-E9.302" to="E4"/>
    <vType id="motor290" length="2.27" minGap="1.00" maxSpeed="37.92" vClass="motorcycle" lcStrategic="500" lcSpeedGainRight="1" lcOvertakeRight="1" carFollowModel="EIDM" accel="5.872" decel="10.410" emergencyDecel="9.214" tau="0.943"/>
    <trip id="motorcycle80" type="motor290" depart="8.00" departLane="best" departSpeed="max" from="E1.596" to="E18"/>
    <vType id="motor212" length="1.94" minGap="1.00" maxSpeed="37.84" vClass="motorcycle" lcStrategic="500" lcSpeedGainRight="1" lcOvertakeRight="1" carFollowModel="EIDM" accel="6.405" decel="10.067" emergencyDecel="9.269" tau="0.930"/>
    <trip id="motorcycle81" type="motor212" depart="8.10" departLane="best" departSpeed="max" from="-E40" to="-E7"/>
    <vType id="motor678" length="2.17" minGap="1.00" maxSpeed="41.58" vClass="motorcycle" lcStrategic="500" lcSpeedGainRight="1" lcOvertakeRight="1" carFollowModel="EIDM" accel="6.238" decel="10.132" emergencyDecel="9.113" tau="0.940"/>
    <trip id="motorcycle82" type="motor678" depart="8.20" departLane="best" departSpeed="max" from="-E40" to="-E37"/>
    <vType id="motor615" length="2.15" minGap="1.00" maxSpeed="40.52" vClass="motorcycle" lcStrategic="500" lcSpeedGainRight="1" lcOvertakeRight="1" carFollowModel="EIDM" accel="5.978" decel="9.926" emergencyDecel="9.093" tau="0.717"/>
    <trip id="motorcycle84" type="motor615" depart="8.40" departLane="best" departSpeed="max" from="E8" to="-E7"/>
    <vType id="motor389" length="2.26" minGap="1.00" maxSpeed="41.08" vClass="motorcycle" lcStrategic="500" lcSpeedGainRight="1" lcOvertakeRight="1" carFollowModel="EIDM" accel="6.057" decel="10.142" emergencyDecel="9.350" tau="0.776"/>
    <trip id="motorcycle85" type="motor389" depart="8.50" departLane="best" departSpeed="max" from="-E2.372" to="-E26"/>
    <vType id="motor825" length="2.07" minGap="1.00" maxSpeed="38.52" vClass="motorcycle" lcStrategic="500" lcSpeedGainRight="1" lcOvertakeRight="1" carFollowModel="EIDM" accel="6.098" decel="9.678" emergencyDecel="9.045" tau="0.784"/>
    <trip id="motorcycle87" type="motor825" depart="8.70" departLane="best" departSpeed="max" from="-E15" to="E10"/>
    <vType id="motor585" length="2.14" minGap="1.00" maxSpeed="37.81" vClass="motorcycle" lcStrategic="500" lcSpeedGainRight="1" lcOvertakeRight="1" carFollowModel="EIDM" accel="6.269" decel="9.976" emergencyDecel="9.304" tau="0.803"/>
    <trip id="motorcycle88" type="motor585" depart="8.80" departLane="best" departSpeed="max" from="E10" to="E3"/>
    <vType id="motor417" length="2.18" minGap="1.00" maxSpeed="39.97" vClass="motorcycle" lcStrategic="500" lcSpeedGainRight="1" lcOvertakeRight="1" carFollowModel="EIDM" accel="5.812" decel="9.997" emergencyDecel="9.191" tau="0.860"/>
    <trip id="motorcycle89" type="motor417" depart="8.90" departLane="best" departSpeed="max" from="E1" to="E37"/>
    <vType id="motor976" length="2.05" minGap="1.00" maxSpeed="39.83" vClass="motorcycle" lcStrategic="500" lcSpeedGainRight="1" lcOvertakeRight="1" carFollowModel="EIDM" accel="5.858" decel="9.925" emergencyDecel="9.054" tau="0.889"/>
    <trip id="motorcycle91" type="motor976" depart="9.10" departLane="best" departSpeed="max" from="-E10" to="E6"/>
    <vType id="motor23" length="2.35" minGap="1.00" maxSpeed="40.80" vClass="motorcycle" lcStrategic="500" lcSpeedGainRight="1" lcOvertakeRight="1" carFollowModel="EIDM" accel="6.096" decel="9.800" emergencyDecel="9.261" tau="0.606"/>
    <trip id="motorcycle92" type="motor23" depart="9.20" departLane="best" departSpeed="max" from="-E13" to="E12"/>
    <vType id="motor302" length="2.12" minGap="1.00" maxSpeed="39.23" vClass="motorcycle" lcStrategic="500" lcSpeedGainRight="1" lcOvertakeRight="1" carFollowModel="EIDM" accel="5.975" decel="10.068" emergencyDecel="9.108" tau="0.907"/>
    <trip id="motorcycle93" type="motor302" depart="9.30" departLane="best" departSpeed="max" from="E32" to="E38"/>
    <vType id="motor104" length="2.34" minGap="1.00" maxSpeed="41.91" vClass="motorcycle" lcStrategic="500" lcSpeedGainRight="1" lcOvertakeRight="1" carFollowModel="EIDM" accel="6.127" decel="9.767" emergencyDecel="9.060" tau="0.835"/>
    <trip id="motorcycle94" type="motor104" depart="9.40" departLane="best" departSpeed="max" from="E19" to="-E1.703"/>
    <trip id="motorcycle95" type="motor875" depart="9.50" departLane="best" departSpeed="max" from="-E1" to="E12"/>
    <vType id="motor625" length="2.44" minGap="1.00" maxSpeed="39.44" vClass="motorcycle" lcStrategic="500" lcSpeedGainRight="1" lcOvertakeRight="1" carFollowModel="EIDM" accel="5.811" decel="9.895" emergencyDecel="9.329" tau="0.618"/>
    <trip id="motorcycle96" type="motor625" depart="9.60" departLane="best" departSpeed="max" from="-E211" to="E34"/>
    <vType id="motor924" length="2.18" minGap="1.00" maxSpeed="40.64" vClass="motorcycle" lcStrategic="500" lcSpeedGainRight="1" lcOvertakeRight="1" carFollowModel="EIDM" accel="5.919" decel="9.712" emergencyDecel="9.355" tau="0.770"/>
    <trip id="motorcycle97" type="motor924" depart="9.70" departLane="best" departSpeed="max" from="E33" to="E4"/>
    <vType id="motor425" length="2.31" minGap="1.00" maxSpeed="39.79" vClass="motorcycle" lcStrategic="500" lcSpeedGainRight="1" lcOvertakeRight="1" carFollowModel="EIDM" accel="6.206" decel="9.905" emergencyDecel="9.272" tau="0.857"/>
    <trip id="motorcycle99" type="motor425" depart="9.90" departLane="best" departSpeed="max" from="E18" to="-E2.372"/>
    <vType id="motor710" length="2.18" minGap="1.00" maxSpeed="43.78" vClass="motorcycle" lcStrategic="500" lcSpeedGainRight="1" lcOvertakeRight="1" carFollowModel="EIDM" accel="6.459" decel="9.828" emergencyDecel="9.061" tau="0.812"/>
    <trip id="motorcycle100" type="motor710" depart="10.00" departLane="best" departSpeed="max" from="E310" to="E15"/>
    <vType id="motor455" length="2.16" minGap="1.00" maxSpeed="38.03" vClass="motorcycle" lcStrategic="500" lcSpeedGainRight="1" lcOvertakeRight="1" carFollowModel="EIDM" accel="5.961" decel="10.308" emergencyDecel="9.151" tau="0.936"/>
    <trip id="motorcycle101" type="motor455" depart="10.10" departLane="best" departSpeed="max" from="E0" to="-E10"/>
    <vType id="motor873" length="2.33" minGap="1.00" maxSpeed="43.71" vClass="motorcycle" lcStrategic="500" lcSpeedGainRight="1" lcOvertakeRight="1" carFollowModel="EIDM" accel="5.907" decel="9.821" emergencyDecel="9.328" tau="0.801"/>
    <trip id="motorcycle102" type="motor873" depart="10.20" departLane="best" departSpeed="max" from="-E40" to="-E2.372"/>