<?xml version="1.0" encoding="UTF-8"?>

<!-- generated on 2023-03-18 19:02:47 by Eclipse SUMO netconvert Version 1.14.1
<configuration xmlns:xsi="http://www.w3.org/2001/XMLSchema-instance" xsi:noNamespaceSchemaLocation="http://sumo.dlr.de/xsd/netconvertConfiguration.xsd">

    <input>
        <node-files value="plain.nod.xml"/>
        <edge-files value="plain.edg.xml"/>
        <connection-files value="plain.con.xml"/>
    </input>

    <output>
        <output-file value="updated.net.xml"/>
    </output>

    <tls_building>
        <tls.default-type value="actuated"/>
    </tls_building>

    <report>
        <ignore-errors.edge-type value="true"/>
    </report>

</configuration>
-->

<net version="1.9" junctionCornerDetail="5" limitTurnSpeed="5.50" xmlns:xsi="http://www.w3.org/2001/XMLSchema-instance" xsi:noNamespaceSchemaLocation="http://sumo.dlr.de/xsd/net_file.xsd">

    <location netOffset="-725774.27,-3564588.70" convBoundary="0.00,0.00,4926.52,2939.08" origBoundary="119.380450,32.140176,119.499121,32.231887" projParameter="+proj=utm +zone=50 +ellps=WGS84 +datum=WGS84 +units=m +no_defs"/>

    <edge id=":J1_0" function="internal">
        <lane id=":J1_0_0" index="0" speed="19.00" length="7.99" shape="810.65,2054.72 803.85,2050.32"/>
        <lane id=":J1_0_1" index="1" speed="19.00" length="7.99" shape="812.29,2051.97 805.67,2047.69"/>
    </edge>
    <edge id=":J1_2" function="internal">
        <lane id=":J1_2_0" index="0" speed="19.00" length="7.77" shape="809.32,2042.43 811.46,2043.30 813.21,2043.16 814.99,2042.96 817.21,2043.71"/>
        <lane id=":J1_2_1" index="1" speed="19.00" length="7.77" shape="809.32,2042.43 815.57,2046.46"/>
        <lane id=":J1_2_2" index="2" speed="19.00" length="7.77" shape="807.49,2045.06 813.93,2049.21"/>
    </edge>
    <edge id=":J10_0" function="internal">
        <lane id=":J10_0_0" index="0" speed="6.67" length="9.64" shape="2345.85,1534.27 2343.75,1532.94 2341.66,1532.67 2339.57,1533.48 2337.48,1535.36"/>
    </edge>
    <edge id=":J10_1" function="internal">
        <lane id=":J10_1_0" index="0" speed="19.00" length="27.56" shape="2345.85,1534.27 2340.50,1529.61 2335.40,1525.42 2330.18,1521.38 2324.46,1517.19"/>
        <lane id=":J10_1_1" index="1" speed="19.00" length="27.56" shape="2347.97,1531.88 2342.59,1527.19 2337.40,1522.92 2332.08,1518.81 2326.32,1514.59"/>
    </edge>
    <edge id=":J10_3" function="internal">
        <lane id=":J10_3_0" index="0" speed="9.90" length="5.90" shape="2347.97,1531.88 2344.03,1527.49"/>
    </edge>
    <edge id=":J10_18" function="internal">
        <lane id=":J10_18_0" index="0" speed="9.90" length="16.12" shape="2344.03,1527.49 2343.47,1526.87 2341.36,1522.02 2341.65,1517.31 2344.32,1512.76"/>
    </edge>
    <edge id=":J10_4" function="internal">
        <lane id=":J10_4_0" index="0" speed="6.59" length="9.18" shape="2351.59,1519.04 2350.26,1521.12 2349.93,1523.16 2350.59,1525.14 2352.24,1527.08"/>
    </edge>
    <edge id=":J10_5" function="internal">
        <lane id=":J10_5_0" index="0" speed="19.00" length="21.57" shape="2351.59,1519.04 2337.48,1535.36"/>
        <lane id=":J10_5_1" index="1" speed="19.00" length="21.57" shape="2349.17,1516.94 2335.06,1533.26"/>
        <lane id=":J10_5_2" index="2" speed="19.00" length="21.57" shape="2346.74,1514.85 2332.64,1531.17"/>
    </edge>
    <edge id=":J10_8" function="internal">
        <lane id=":J10_8_0" index="0" speed="10.35" length="3.89" shape="2346.74,1514.85 2343.70,1517.27"/>
    </edge>
    <edge id=":J10_19" function="internal">
        <lane id=":J10_19_0" index="0" speed="10.35" length="18.85" shape="2343.70,1517.27 2342.59,1518.16 2337.80,1519.22 2332.38,1518.03 2326.32,1514.59"/>
    </edge>
    <edge id=":J10_9" function="internal">
        <lane id=":J10_9_0" index="0" speed="7.23" length="10.60" shape="2330.04,1509.39 2332.66,1510.78 2335.10,1511.11 2337.38,1510.38 2339.48,1508.57"/>
    </edge>
    <edge id=":J10_10" function="internal">
        <lane id=":J10_10_0" index="0" speed="19.00" length="28.23" shape="2330.04,1509.39 2335.89,1513.67 2341.39,1517.92 2346.76,1522.33 2352.24,1527.08"/>
        <lane id=":J10_10_1" index="1" speed="19.00" length="28.23" shape="2328.18,1511.99 2333.99,1516.24 2339.39,1520.42 2344.68,1524.76 2350.11,1529.47"/>
    </edge>
    <edge id=":J10_12" function="internal">
        <lane id=":J10_12_0" index="0" speed="9.71" length="6.65" shape="2328.18,1511.99 2333.10,1516.46"/>
    </edge>
    <edge id=":J10_20" function="internal">
        <lane id=":J10_20_0" index="0" speed="9.71" length="16.22" shape="2333.10,1516.46 2333.33,1516.68 2335.79,1521.44 2335.56,1526.27 2332.64,1531.17"/>
    </edge>
    <edge id=":J10_13" function="internal">
        <lane id=":J10_13_0" index="0" speed="6.32" length="9.04" shape="2325.37,1524.90 2326.73,1522.78 2327.02,1520.79 2326.27,1518.93 2324.46,1517.19"/>
    </edge>
    <edge id=":J10_14" function="internal">
        <lane id=":J10_14_0" index="0" speed="19.00" length="21.58" shape="2325.37,1524.90 2339.48,1508.57"/>
        <lane id=":J10_14_1" index="1" speed="19.00" length="21.58" shape="2327.79,1526.99 2341.90,1510.66"/>
        <lane id=":J10_14_2" index="2" speed="19.00" length="21.58" shape="2330.22,1529.08 2344.32,1512.76"/>
    </edge>
    <edge id=":J10_17" function="internal">
        <lane id=":J10_17_0" index="0" speed="9.94" length="4.26" shape="2330.22,1529.08 2333.50,1526.36"/>
    </edge>
    <edge id=":J10_21" function="internal">
        <lane id=":J10_21_0" index="0" speed="9.94" length="18.46" shape="2333.50,1526.36 2334.63,1525.44 2339.42,1524.29 2344.58,1525.63 2350.11,1529.47"/>
    </edge>
    <edge id=":J11_0" function="internal">
        <lane id=":J11_0_0" index="0" speed="6.19" length="9.05" shape="2654.13,1177.95 2652.23,1176.27 2650.33,1175.70 2648.41,1176.24 2646.50,1177.91"/>
    </edge>
    <edge id=":J11_1" function="internal">
        <lane id=":J11_1_0" index="0" speed="19.00" length="28.35" shape="2656.57,1175.89 2651.18,1169.53 2647.34,1165.31 2643.19,1161.38 2636.89,1155.94"/>
        <lane id=":J11_1_1" index="1" speed="19.00" length="28.35" shape="2659.02,1173.82 2653.53,1167.35 2649.61,1163.04 2645.38,1159.05 2638.96,1153.51"/>
    </edge>
    <edge id=":J11_3" function="internal">
        <lane id=":J11_3_0" index="0" speed="11.38" length="5.65" shape="2659.02,1173.82 2655.93,1169.09"/>
    </edge>
    <edge id=":J11_20" function="internal">
        <lane id=":J11_20_0" index="0" speed="11.38" length="20.74" shape="2655.93,1169.09 2654.94,1167.57 2653.43,1161.52 2654.48,1155.65 2658.10,1149.98"/>
    </edge>
    <edge id=":J11_4" function="internal">
        <lane id=":J11_4_0" index="0" speed="9.30" length="17.34" shape="2665.31,1156.32 2661.84,1160.96 2660.04,1165.08 2659.92,1168.68 2661.46,1171.76"/>
    </edge>
    <edge id=":J11_5" function="internal">
        <lane id=":J11_5_0" index="0" speed="19.00" length="28.66" shape="2665.31,1156.32 2646.50,1177.91"/>
        <lane id=":J11_5_1" index="1" speed="19.00" length="28.66" shape="2662.91,1154.20 2644.08,1175.82"/>
        <lane id=":J11_5_2" index="2" speed="19.00" length="28.66" shape="2660.50,1152.09 2641.66,1173.72"/>
    </edge>
    <edge id=":J11_8" function="internal">
        <lane id=":J11_8_0" index="0" speed="10.43" length="4.81" shape="2660.50,1152.09 2656.85,1155.21"/>
    </edge>
    <edge id=":J11_21" function="internal">
        <lane id=":J11_21_0" index="0" speed="10.43" length="19.73" shape="2656.85,1155.21 2655.43,1156.42 2650.15,1158.09 2644.66,1157.12 2638.96,1153.51"/>
    </edge>
    <edge id=":J11_9" function="internal">
        <lane id=":J11_9_0" index="0" speed="6.60" length="9.21" shape="2645.20,1146.17 2647.36,1147.56 2649.43,1147.95 2651.41,1147.35 2653.30,1145.75"/>
    </edge>
    <edge id=":J11_10" function="internal">
        <lane id=":J11_10_0" index="0" speed="19.00" length="29.40" shape="2643.13,1148.61 2649.78,1154.37 2654.16,1158.52 2658.21,1162.98 2663.91,1169.69"/>
        <lane id=":J11_10_1" index="1" speed="19.00" length="29.40" shape="2641.05,1151.04 2647.59,1156.70 2651.88,1160.78 2655.87,1165.16 2661.46,1171.76"/>
    </edge>
    <edge id=":J11_12" function="internal">
        <lane id=":J11_12_0" index="0" speed="10.62" length="4.91" shape="2641.05,1151.04 2644.25,1154.78"/>
    </edge>
    <edge id=":J11_22" function="internal">
        <lane id=":J11_22_0" index="0" speed="10.62" length="20.97" shape="2644.25,1154.78 2645.45,1156.19 2647.01,1161.68 2645.75,1167.53 2641.66,1173.72"/>
    </edge>
    <edge id=":J11_13" function="internal">
        <lane id=":J11_13_0" index="0" speed="6.89" length="10.32" shape="2634.39,1167.44 2636.18,1164.84 2636.84,1162.46 2636.39,1160.31 2634.81,1158.38"/>
    </edge>
    <edge id=":J11_14" function="internal">
        <lane id=":J11_14_0" index="0" speed="19.00" length="28.77" shape="2634.39,1167.44 2653.30,1145.75"/>
    </edge>
    <edge id=":J11_15" function="internal">
        <lane id=":J11_15_0" index="0" speed="7.69" length="13.11" shape="2634.39,1167.44 2637.09,1163.78 2638.41,1160.64 2638.34,1158.03 2636.89,1155.94"/>
        <lane id=":J11_15_1" index="1" speed="8.44" length="16.01" shape="2634.39,1167.44 2638.01,1162.72 2639.97,1158.83 2640.29,1155.75 2638.96,1153.51"/>
    </edge>
    <edge id=":J11_17" function="internal">
        <lane id=":J11_17_0" index="0" speed="19.00" length="28.73" shape="2636.81,1169.54 2655.70,1147.87"/>
        <lane id=":J11_17_1" index="1" speed="19.00" length="28.73" shape="2639.24,1171.63 2658.10,1149.98"/>
    </edge>
    <edge id=":J11_19" function="internal">
        <lane id=":J11_19_0" index="0" speed="10.17" length="5.10" shape="2639.24,1171.63 2643.09,1168.29"/>
    </edge>
    <edge id=":J11_23" function="internal">
        <lane id=":J11_23_0" index="0" speed="10.17" length="21.27" shape="2643.09,1168.29 2644.82,1166.78 2650.39,1165.19 2655.93,1166.85 2661.46,1171.76"/>
    </edge>
    <edge id=":J12_0" function="internal">
        <lane id=":J12_0_0" index="0" speed="9.90" length="12.58" shape="3608.91,994.85 3608.12,990.92 3606.92,987.82 3605.32,985.55 3603.31,984.11"/>
    </edge>
    <edge id=":J12_1" function="internal">
        <lane id=":J12_1_0" index="0" speed="8.82" length="24.48" shape="3612.09,994.42 3612.06,987.06 3614.41,982.77 3619.14,981.57 3626.24,983.45"/>
    </edge>
    <edge id=":J12_2" function="internal">
        <lane id=":J12_2_0" index="0" speed="5.66" length="9.24" shape="3623.77,989.44 3621.09,988.72 3619.30,989.16 3618.42,990.77 3618.43,993.56"/>
        <lane id=":J12_2_1" index="1" speed="6.60" length="13.10" shape="3623.77,989.44 3619.61,988.21 3616.80,988.55 3615.35,990.48 3615.26,993.99"/>
    </edge>
    <edge id=":J12_4" function="internal">
        <lane id=":J12_4_0" index="0" speed="19.00" length="20.74" shape="3623.77,989.44 3604.66,981.21"/>
        <lane id=":J12_4_1" index="1" speed="19.00" length="20.74" shape="3624.99,986.49 3606.00,978.31"/>
    </edge>
    <edge id=":J12_6" function="internal">
        <lane id=":J12_6_0" index="0" speed="19.00" length="20.69" shape="3610.05,969.58 3615.40,972.59 3618.78,975.24 3622.15,977.79 3627.46,980.49"/>
        <lane id=":J12_6_1" index="1" speed="19.00" length="20.69" shape="3608.70,972.48 3614.10,975.51 3617.52,978.18 3620.92,980.74 3626.24,983.45"/>
    </edge>
    <edge id=":J12_8" function="internal">
        <lane id=":J12_8_0" index="0" speed="12.66" length="2.73" shape="3607.36,975.39 3609.46,977.11"/>
    </edge>
    <edge id=":J12_9" function="internal">
        <lane id=":J12_9_0" index="0" speed="12.66" length="18.11" shape="3609.46,977.11 3610.00,977.56 3612.20,981.38 3613.95,986.86 3615.26,993.99"/>
    </edge>
    <edge id=":J13_0" function="internal">
        <lane id=":J13_0_0" index="0" speed="6.44" length="9.02" shape="4158.86,1226.61 4156.40,1226.33 4154.45,1226.90 4153.03,1228.35 4152.12,1230.66"/>
    </edge>
    <edge id=":J13_1" function="internal">
        <lane id=":J13_1_0" index="0" speed="19.00" length="26.67" shape="4158.86,1226.61 4152.09,1224.69 4145.96,1222.62 4139.97,1220.18 4133.62,1217.15"/>
        <lane id=":J13_1_1" index="1" speed="19.00" length="26.67" shape="4159.66,1223.52 4152.99,1221.63 4147.08,1219.64 4141.31,1217.28 4135.06,1214.30"/>
    </edge>
    <edge id=":J13_3" function="internal">
        <lane id=":J13_3_0" index="0" speed="8.97" length="6.43" shape="4159.66,1223.52 4153.72,1221.04"/>
    </edge>
    <edge id=":J13_15" function="internal">
        <lane id=":J13_15_0" index="0" speed="8.97" length="16.40" shape="4153.72,1221.04 4153.43,1220.92 4150.23,1217.25 4150.06,1212.51 4152.91,1206.70"/>
    </edge>
    <edge id=":J13_4" function="internal">
        <lane id=":J13_4_0" index="0" speed="6.00" length="9.54" shape="4158.19,1210.32 4157.04,1212.70 4157.18,1214.64 4158.59,1216.15 4161.28,1217.22"/>
    </edge>
    <edge id=":J13_5" function="internal">
        <lane id=":J13_5_0" index="0" speed="19.00" length="21.87" shape="4158.19,1210.32 4154.71,1215.38 4152.40,1219.27 4150.69,1223.58 4149.00,1229.93"/>
    </edge>
    <edge id=":J13_6" function="internal">
        <lane id=":J13_6_0" index="0" speed="10.72" length="5.38" shape="4155.55,1208.51 4151.95,1212.51"/>
    </edge>
    <edge id=":J13_16" function="internal">
        <lane id=":J13_16_0" index="0" speed="10.72" length="18.24" shape="4151.95,1212.51 4151.18,1213.37 4146.31,1215.95 4140.93,1216.26 4135.06,1214.30"/>
    </edge>
    <edge id=":J13_7" function="internal">
        <lane id=":J13_7_0" index="0" speed="8.38" length="14.19" shape="4138.02,1208.46 4141.49,1209.65 4144.69,1209.45 4147.62,1207.86 4150.28,1204.88"/>
    </edge>
    <edge id=":J13_8" function="internal">
        <lane id=":J13_8_0" index="0" speed="19.00" length="25.27" shape="4138.02,1208.46 4144.03,1211.43 4149.34,1213.64 4154.81,1215.45 4161.28,1217.22"/>
        <lane id=":J13_8_1" index="1" speed="19.00" length="25.27" shape="4136.58,1211.31 4142.69,1214.32 4148.22,1216.61 4153.91,1218.51 4160.48,1220.32"/>
    </edge>
    <edge id=":J13_10" function="internal">
        <lane id=":J13_10_0" index="0" speed="11.40" length="6.91" shape="4136.58,1211.31 4142.39,1215.04"/>
    </edge>
    <edge id=":J13_17" function="internal">
        <lane id=":J13_17_0" index="0" speed="11.40" length="17.27" shape="4142.39,1215.04 4142.97,1215.41 4147.17,1219.87 4149.18,1224.71 4149.00,1229.93"/>
    </edge>
    <edge id=":J13_11" function="internal">
        <lane id=":J13_11_0" index="0" speed="7.85" length="11.13" shape="4136.56,1227.00 4137.03,1223.58 4136.70,1220.80 4135.56,1218.66 4133.62,1217.15"/>
    </edge>
    <edge id=":J13_12" function="internal">
        <lane id=":J13_12_0" index="0" speed="19.00" length="24.83" shape="4139.67,1227.73 4141.75,1220.15 4143.93,1214.80 4146.63,1210.21 4150.28,1204.88"/>
        <lane id=":J13_12_1" index="1" speed="19.00" length="24.83" shape="4142.79,1228.46 4144.73,1221.29 4146.75,1216.29 4149.33,1211.93 4152.91,1206.70"/>
    </edge>
    <edge id=":J13_14" function="internal">
        <lane id=":J13_14_0" index="0" speed="9.81" length="10.51" shape="4142.79,1228.46 4144.95,1223.46 4148.61,1220.44 4148.91,1220.38"/>
    </edge>
    <edge id=":J13_18" function="internal">
        <lane id=":J13_18_0" index="0" speed="9.81" length="11.73" shape="4148.91,1220.38 4153.79,1219.39 4160.48,1220.32"/>
    </edge>
    <edge id=":J14_0" function="internal">
        <lane id=":J14_0_0" index="0" speed="19.00" length="24.35" shape="4073.64,1946.77 4072.12,1939.54 4071.28,1934.55 4070.79,1929.51 4070.34,1922.14"/>
        <lane id=":J14_0_1" index="1" speed="19.00" length="24.35" shape="4076.75,1946.05 4075.27,1938.97 4074.45,1934.09 4073.98,1929.16 4073.54,1921.95"/>
        <lane id=":J14_0_2" index="2" speed="19.00" length="24.35" shape="4079.87,1945.32 4078.42,1938.41 4077.62,1933.63 4077.16,1928.82 4076.73,1921.77"/>
    </edge>
    <edge id=":J14_3" function="internal">
        <lane id=":J14_3_0" index="0" speed="10.29" length="4.90" shape="4079.87,1945.32 4079.70,1940.42"/>
    </edge>
    <edge id=":J14_11" function="internal">
        <lane id=":J14_11_0" index="0" speed="10.29" length="18.98" shape="4079.70,1940.42 4079.67,1939.51 4081.81,1934.84 4086.29,1931.30 4093.11,1928.90"/>
    </edge>
    <edge id=":J14_4" function="internal">
        <lane id=":J14_4_0" index="0" speed="6.93" length="10.59" shape="4094.61,1935.45 4091.79,1936.45 4089.99,1938.05 4089.20,1940.26 4089.42,1943.09"/>
    </edge>
    <edge id=":J14_5" function="internal">
        <lane id=":J14_5_0" index="0" speed="9.70" length="23.76" shape="4093.90,1932.33 4086.69,1932.94 4081.43,1931.39 4078.11,1927.66 4076.73,1921.77"/>
    </edge>
    <edge id=":J14_6" function="internal">
        <lane id=":J14_6_0" index="0" speed="6.18" length="9.05" shape="4086.30,1921.22 4086.81,1923.71 4088.00,1925.30 4089.85,1925.99 4092.39,1925.78"/>
        <lane id=":J14_6_1" index="1" speed="7.02" length="12.05" shape="4086.30,1921.22 4086.93,1925.12 4088.27,1927.70 4090.33,1928.96 4093.11,1928.90"/>
    </edge>
    <edge id=":J14_8" function="internal">
        <lane id=":J14_8_0" index="0" speed="19.00" length="22.69" shape="4086.30,1921.22 4086.71,1927.77 4087.16,1932.25 4087.96,1936.68 4089.42,1943.09"/>
        <lane id=":J14_8_1" index="1" speed="19.00" length="22.69" shape="4083.10,1921.40 4083.52,1928.12 4083.99,1932.71 4084.81,1937.25 4086.30,1943.82"/>
        <lane id=":J14_8_2" index="2" speed="19.00" length="22.69" shape="4079.91,1921.58 4080.34,1928.47 4080.82,1933.17 4081.66,1937.82 4083.19,1944.54"/>
    </edge>
    <edge id=":J18_0" function="internal">
        <lane id=":J18_0_0" index="0" speed="19.00" length="0.28" shape="2343.91,2438.52 2343.65,2438.43"/>
        <lane id=":J18_0_1" index="1" speed="19.00" length="0.28" shape="2344.89,2435.47 2344.62,2435.38"/>
        <lane id=":J18_0_2" index="2" speed="19.00" length="0.28" shape="2345.86,2432.42 2345.58,2432.33"/>
    </edge>
    <edge id=":J18_3" function="internal">
        <lane id=":J18_3_0" index="0" speed="19.00" length="0.32" shape="2348.48,2423.18 2348.79,2423.28"/>
        <lane id=":J18_3_1" index="1" speed="19.00" length="0.32" shape="2347.52,2426.23 2347.82,2426.32"/>
        <lane id=":J18_3_2" index="2" speed="19.00" length="0.32" shape="2346.55,2429.28 2346.84,2429.37"/>
    </edge>
    <edge id=":J19_0" function="internal">
        <lane id=":J19_0_0" index="0" speed="19.00" length="12.13" shape="1567.83,975.77 1564.33,974.49 1561.31,974.91 1558.46,975.14 1555.44,973.31"/>
        <lane id=":J19_0_1" index="1" speed="19.00" length="12.13" shape="1569.69,973.17 1566.34,972.00 1563.43,972.51 1560.69,972.84 1557.79,971.15"/>
        <lane id=":J19_0_2" index="2" speed="19.00" length="12.13" shape="1569.69,973.17 1566.91,971.78 1564.65,971.38 1562.53,970.83 1560.15,968.98"/>
    </edge>
    <edge id=":J19_3" function="internal">
        <lane id=":J19_3_0" index="0" speed="19.00" length="8.64" shape="1567.21,962.48 1568.89,964.28 1570.10,965.46 1571.42,966.52 1573.42,967.97"/>
        <lane id=":J19_3_1" index="1" speed="19.00" length="8.64" shape="1564.85,964.65 1566.67,966.59 1567.98,967.87 1569.40,969.01 1571.55,970.57"/>
    </edge>
    <edge id=":J2_0" function="internal">
        <lane id=":J2_0_0" index="0" speed="10.11" length="17.58" shape="1756.30,2354.47 1754.97,2350.48 1752.45,2347.39 1748.74,2345.19 1743.83,2343.87"/>
    </edge>
    <edge id=":J2_1" function="internal">
        <lane id=":J2_1_0" index="0" speed="19.00" length="30.63" shape="1756.30,2354.47 1755.22,2347.55 1754.61,2340.85 1754.77,2333.22 1755.98,2323.52"/>
        <lane id=":J2_1_1" index="1" speed="19.00" length="30.63" shape="1759.46,2353.97 1758.38,2347.21 1757.78,2340.85 1757.93,2333.56 1759.14,2324.04"/>
    </edge>
    <edge id=":J2_3" function="internal">
        <lane id=":J2_3_0" index="0" speed="9.54" length="25.19" shape="1759.46,2353.97 1759.17,2346.33 1761.24,2341.16 1765.67,2338.47 1772.46,2338.24"/>
    </edge>
    <edge id=":J2_4" function="internal">
        <lane id=":J2_4_0" index="0" speed="6.08" length="9.44" shape="1771.25,2347.77 1768.45,2347.79 1766.58,2348.66 1765.65,2350.40 1765.66,2353.00"/>
    </edge>
    <edge id=":J2_5" function="internal">
        <lane id=":J2_5_0" index="0" speed="19.00" length="27.60" shape="1771.25,2347.77 1743.83,2343.87"/>
        <lane id=":J2_5_1" index="1" speed="19.00" length="27.60" shape="1771.66,2344.60 1744.33,2340.71"/>
        <lane id=":J2_5_2" index="2" speed="19.00" length="27.60" shape="1772.06,2341.42 1744.83,2337.55"/>
    </edge>
    <edge id=":J2_8" function="internal">
        <lane id=":J2_8_0" index="0" speed="10.31" length="5.60" shape="1772.06,2341.42 1766.66,2339.93"/>
    </edge>
    <edge id=":J2_18" function="internal">
        <lane id=":J2_18_0" index="0" speed="10.31" length="19.30" shape="1766.66,2339.93 1765.45,2339.60 1761.10,2336.10 1758.99,2330.91 1759.14,2324.04"/>
    </edge>
    <edge id=":J2_9" function="internal">
        <lane id=":J2_9_0" index="0" speed="6.44" length="9.04" shape="1768.55,2325.59 1768.51,2328.08 1769.28,2329.96 1770.87,2331.23 1773.26,2331.89"/>
    </edge>
    <edge id=":J2_10" function="internal">
        <lane id=":J2_10_0" index="0" speed="19.00" length="28.22" shape="1768.55,2325.59 1766.96,2334.22 1765.70,2340.69 1765.15,2346.46 1765.66,2353.00"/>
        <lane id=":J2_10_1" index="1" speed="19.00" length="28.22" shape="1765.39,2325.07 1763.77,2334.07 1762.51,2340.87 1761.98,2346.87 1762.50,2353.49"/>
    </edge>
    <edge id=":J2_12" function="internal">
        <lane id=":J2_12_0" index="0" speed="10.42" length="24.76" shape="1762.23,2324.55 1760.22,2331.12 1756.65,2335.48 1751.52,2337.62 1744.83,2337.55"/>
    </edge>
    <edge id=":J2_13" function="internal">
        <lane id=":J2_13_0" index="0" speed="6.63" length="9.37" shape="1746.33,2328.06 1748.80,2328.07 1750.71,2327.23 1752.05,2325.54 1752.82,2323.00"/>
    </edge>
    <edge id=":J2_14" function="internal">
        <lane id=":J2_14_0" index="0" speed="19.00" length="27.31" shape="1746.33,2328.06 1773.26,2331.89"/>
        <lane id=":J2_14_1" index="1" speed="19.00" length="27.31" shape="1745.83,2331.22 1772.86,2335.07"/>
        <lane id=":J2_14_2" index="2" speed="19.00" length="27.31" shape="1745.33,2334.38 1772.46,2338.24"/>
    </edge>
    <edge id=":J2_17" function="internal">
        <lane id=":J2_17_0" index="0" speed="12.54" length="4.40" shape="1745.33,2334.38 1749.53,2335.71"/>
    </edge>
    <edge id=":J2_19" function="internal">
        <lane id=":J2_19_0" index="0" speed="12.54" length="23.27" shape="1749.53,2335.71 1751.85,2336.44 1756.88,2340.31 1760.43,2345.99 1762.50,2353.49"/>
    </edge>
    <edge id=":J20_0" function="internal">
        <lane id=":J20_0_0" index="0" speed="19.00" length="5.09" shape="1100.71,419.23 1099.65,417.73 1098.97,416.65 1098.48,415.49 1097.96,413.73"/>
        <lane id=":J20_0_1" index="1" speed="18.16" length="5.09" shape="1103.33,417.39 1102.46,416.16 1101.90,415.29 1101.48,414.34 1101.05,412.90"/>
        <lane id=":J20_0_2" index="2" speed="16.06" length="5.09" shape="1105.95,415.56 1105.27,414.60 1104.82,413.92 1104.48,413.19 1104.14,412.07"/>
    </edge>
    <edge id=":J20_3" function="internal">
        <lane id=":J20_3_0" index="0" speed="19.00" length="1.70" shape="1113.58,409.55 1113.61,409.71 1113.65,409.82 1113.72,409.91 1113.82,410.05"/>
        <lane id=":J20_3_1" index="1" speed="7.31" length="1.70" shape="1110.47,410.38 1110.57,410.87 1110.70,411.18 1110.90,411.48 1111.20,411.89"/>
        <lane id=":J20_3_2" index="2" speed="9.29" length="1.70" shape="1107.36,411.21 1107.53,412.02 1107.75,412.55 1108.08,413.04 1108.58,413.72"/>
    </edge>
    <edge id=":J22_0" function="internal">
        <lane id=":J22_0_0" index="0" speed="6.89" length="10.74" shape="3215.97,1823.64 3213.81,1821.04 3211.60,1819.69 3209.37,1819.58 3207.09,1820.72"/>
    </edge>
    <edge id=":J22_1" function="internal">
        <lane id=":J22_1_0" index="0" speed="19.00" length="23.52" shape="3215.97,1823.64 3212.16,1817.95 3209.45,1814.12 3206.50,1810.48 3201.98,1805.34"/>
        <lane id=":J22_1_1" index="1" speed="19.00" length="23.52" shape="3218.63,1821.86 3214.75,1816.06 3211.99,1812.16 3208.98,1808.45 3204.37,1803.21"/>
        <lane id=":J22_1_2" index="2" speed="19.00" length="23.52" shape="3221.29,1820.08 3217.34,1814.17 3214.52,1810.20 3211.46,1806.41 3206.76,1801.08"/>
    </edge>
    <edge id=":J22_4" function="internal">
        <lane id=":J22_4_0" index="0" speed="9.54" length="4.28" shape="3221.29,1820.08 3219.54,1816.18"/>
    </edge>
    <edge id=":J22_18" function="internal">
        <lane id=":J22_18_0" index="0" speed="9.54" length="20.26" shape="3219.54,1816.18 3218.66,1814.21 3219.15,1809.19 3222.76,1805.00 3229.51,1801.66"/>
    </edge>
    <edge id=":J22_5" function="internal">
        <lane id=":J22_5_0" index="0" speed="6.03" length="9.07" shape="3231.63,1807.70 3229.34,1808.90 3228.18,1810.47 3228.16,1812.42 3229.28,1814.75"/>
    </edge>
    <edge id=":J22_6" function="internal">
        <lane id=":J22_6_0" index="0" speed="19.00" length="28.40" shape="3231.63,1807.70 3224.93,1810.28 3218.80,1813.17 3212.95,1816.58 3207.09,1820.72"/>
        <lane id=":J22_6_1" index="1" speed="19.00" length="28.40" shape="3230.57,1804.68 3223.73,1807.33 3217.30,1810.39 3211.14,1813.97 3205.15,1818.18"/>
    </edge>
    <edge id=":J22_8" function="internal">
        <lane id=":J22_8_0" index="0" speed="12.56" length="5.54" shape="3230.57,1804.68 3225.20,1806.03"/>
    </edge>
    <edge id=":J22_19" function="internal">
        <lane id=":J22_19_0" index="0" speed="12.56" length="20.07" shape="3225.20,1806.03 3223.20,1806.52 3216.78,1806.54 3211.30,1804.72 3206.76,1801.08"/>
    </edge>
    <edge id=":J22_9" function="internal">
        <lane id=":J22_9_0" index="0" speed="10.02" length="16.05" shape="3213.93,1794.69 3217.14,1797.52 3220.63,1799.13 3224.40,1799.50 3228.44,1798.64"/>
    </edge>
    <edge id=":J22_10" function="internal">
        <lane id=":J22_10_0" index="0" speed="19.00" length="24.85" shape="3213.93,1794.69 3218.88,1800.32 3222.12,1804.32 3225.10,1808.51 3229.28,1814.75"/>
        <lane id=":J22_10_1" index="1" speed="19.00" length="24.85" shape="3211.54,1796.82 3216.41,1802.35 3219.59,1806.28 3222.51,1810.40 3226.62,1816.53"/>
        <lane id=":J22_10_2" index="2" speed="19.00" length="24.85" shape="3209.15,1798.95 3213.93,1804.38 3217.06,1808.24 3219.93,1812.28 3223.95,1818.31"/>
    </edge>
    <edge id=":J22_13" function="internal">
        <lane id=":J22_13_0" index="0" speed="9.73" length="4.24" shape="3209.15,1798.95 3211.37,1802.55"/>
    </edge>
    <edge id=":J22_20" function="internal">
        <lane id=":J22_20_0" index="0" speed="9.73" length="18.47" shape="3211.37,1802.55 3212.11,1803.75 3212.43,1808.56 3210.11,1813.37 3205.15,1818.18"/>
    </edge>
    <edge id=":J22_14" function="internal">
        <lane id=":J22_14_0" index="0" speed="6.35" length="9.04" shape="3201.25,1813.09 3203.00,1811.30 3203.70,1809.41 3203.37,1807.42 3201.98,1805.34"/>
    </edge>
    <edge id=":J22_15" function="internal">
        <lane id=":J22_15_0" index="0" speed="19.00" length="30.41" shape="3201.25,1813.09 3207.52,1808.73 3214.29,1804.83 3221.33,1801.45 3228.44,1798.64"/>
        <lane id=":J22_15_1" index="1" speed="19.00" length="30.41" shape="3203.19,1815.63 3209.33,1811.35 3215.79,1807.61 3222.53,1804.39 3229.51,1801.66"/>
    </edge>
    <edge id=":J22_17" function="internal">
        <lane id=":J22_17_0" index="0" speed="10.07" length="6.92" shape="3203.19,1815.63 3209.20,1812.19"/>
    </edge>
    <edge id=":J22_21" function="internal">
        <lane id=":J22_21_0" index="0" speed="10.07" length="17.31" shape="3209.20,1812.19 3214.66,1811.49 3219.58,1813.53 3223.95,1818.31"/>
    </edge>
    <edge id=":J23_0" function="internal">
        <lane id=":J23_0_0" index="0" speed="19.00" length="22.72" shape="3450.57,2165.23 3445.95,2161.03 3441.93,2158.24 3437.98,2155.02 3433.57,2149.54"/>
        <lane id=":J23_0_1" index="1" speed="19.00" length="22.72" shape="3452.92,2163.06 3448.33,2158.90 3444.39,2156.19 3440.54,2153.09 3436.24,2147.77"/>
        <lane id=":J23_0_2" index="2" speed="19.00" length="22.72" shape="3452.92,2163.06 3448.73,2158.59 3445.66,2155.22 3442.72,2151.50 3438.90,2145.99"/>
    </edge>
    <edge id=":J23_3" function="internal">
        <lane id=":J23_3_0" index="0" speed="8.83" length="4.91" shape="3452.92,2163.06 3450.11,2159.03"/>
    </edge>
    <edge id=":J23_11" function="internal">
        <lane id=":J23_11_0" index="0" speed="8.83" length="18.14" shape="3450.11,2159.03 3449.05,2157.50 3448.48,2152.78 3451.22,2148.89 3457.26,2145.83"/>
    </edge>
    <edge id=":J23_4" function="internal">
        <lane id=":J23_4_0" index="0" speed="5.80" length="9.15" shape="3459.34,2151.88 3456.94,2153.09 3455.86,2154.64 3456.08,2156.51 3457.62,2158.72"/>
        <lane id=":J23_4_1" index="1" speed="7.47" length="16.10" shape="3458.30,2148.85 3454.08,2150.99 3452.17,2153.71 3452.57,2157.01 3455.27,2160.89"/>
    </edge>
    <edge id=":J23_6" function="internal">
        <lane id=":J23_6_0" index="0" speed="11.29" length="23.51" shape="3458.30,2148.85 3450.41,2151.02 3444.11,2151.57 3439.38,2150.48 3436.24,2147.77"/>
        <lane id=":J23_6_1" index="1" speed="10.72" length="21.13" shape="3458.30,2148.85 3451.75,2150.51 3446.34,2150.58 3442.05,2149.08 3438.90,2145.99"/>
    </edge>
    <edge id=":J23_8" function="internal">
        <lane id=":J23_8_0" index="0" speed="7.66" length="10.38" shape="3446.88,2140.66 3448.55,2142.43 3450.67,2143.37 3453.22,2143.50 3456.22,2142.80"/>
        <lane id=":J23_8_1" index="1" speed="8.99" length="14.62" shape="3444.22,2142.44 3446.64,2145.05 3449.62,2146.49 3453.16,2146.75 3457.26,2145.83"/>
    </edge>
    <edge id=":J23_10" function="internal">